/*--------------------------------*- C++ -*----------------------------------*\
  =========                 |
  \\      /  F ield         | OpenFOAM: The Open Source CFD Toolbox
   \\    /   O peration     | Website:  https://openfoam.org
    \\  /    A nd           | Version:  8
     \\/     M anipulation  |
\*---------------------------------------------------------------------------*/
FoamFile
{
    version     2.0;
    format      ascii;
    class       polyBoundaryMesh;
    location    "constant/polyMesh";
    object      boundary;
}
// * * * * * * * * * * * * * * * * * * * * * * * * * * * * * * * * * * * * * //

5
(
    fb
    {
        type            empty;
        physicalType    patch;
        nFaces          7230;
        startFace       40340;
    }
    sym
    {
        type            symmetry;
        physicalType    patch;
        nFaces          490;
        startFace       47570;
    }
    inlet
    {
        type            patch;
        physicalType    patch;
        nFaces          245;
        startFace       48060;
    }
    outlet
    {
        type            patch;
        physicalType    patch;
        nFaces          245;
        startFace       48305;
    }
    fw
    {
        type            wall;
        physicalType    patch;
        nFaces          1485;
        startFace       48550;
    }
)

// ************************************************************************* //
